GMLCDjangoProject/MapApp/static/MapApp/data/transmission/scenario5.csv
,node,voltage_magnitude,voltage_angle,active_power,reactive_power,month,hour_of_day,day_of_month,daytype,timezone
0,WECCbus157,1.0154698,-0.80895408,3.0261449000000002,0.21853686,january,0,1,weekday,
6,WECCbus157,1.0308653,-0.78738026,2.7897634,-0.26463509,january,1,1,weekday,
12,WECCbus157,1.0311571,-0.78283157,2.7542458,-0.26541375,january,2,1,weekday,
18,WECCbus157,1.0312421,-0.7814871999999999,2.7438563,-0.26562482,january,3,1,weekday,
24,WECCbus157,1.0312591999999998,-0.78117753,2.7419561000000003,-0.26564265,january,4,1,weekday,
30,WECCbus157,1.0310565999999999,-0.78438678,2.7665772,-0.26513058,january,5,1,weekday,
36,WECCbus157,1.0304455,-0.79377791,2.8396262,-0.26332657,january,6,1,weekday,
42,WECCbus157,1.0293694,-0.80937661,2.9645319,-0.25932238,january,7,1,weekday,
48,WECCbus157,1.0290394,-0.81361986,3.003416,-0.25766949,january,8,1,weekday,
54,WECCbus157,1.0304712,-0.79280489,2.8397752,-0.26304997,january,9,1,weekday,
60,WECCbus157,1.0316398,-0.77435307,2.6982825,-0.26602649,january,10,1,weekday,
66,WECCbus157,1.032442,-0.76123712,2.5940737,-0.26750119,january,11,1,weekday,
72,WECCbus157,1.0326252,-0.7582656999999999,2.5688188999999997,-0.26779980000000003,january,12,1,weekday,
78,WECCbus157,1.0326402,-0.75803652,2.5666477999999997,-0.26783326,january,13,1,weekday,
84,WECCbus157,1.0325992,-0.75867496,2.5725091,-0.26775127,january,14,1,weekday,
90,WECCbus157,1.0322524,-0.7644466999999999,2.6188792999999997,-0.26724166,january,15,1,weekday,
96,WECCbus157,1.0314041999999999,-0.77854639,2.7257214,-0.26577999,january,16,1,weekday,
102,WECCbus157,1.0289244,-0.81604972,3.0113472000000003,-0.25764678,january,17,1,weekday,
108,WECCbus157,1.0265678,-0.8463139000000001,3.261952,-0.24492842,january,18,1,weekday,
114,WECCbus157,1.0255555,-0.85997965,3.3557092000000006,-0.23969933,january,19,1,weekday,
120,WECCbus157,1.0256584999999998,-0.85868887,3.3461205,-0.24033156,january,20,1,weekday,
126,WECCbus157,1.0260479,-0.85386307,3.3082613,-0.24263251,january,21,1,weekday,
132,WECCbus157,1.0271,-0.84053847,3.2042197999999997,-0.24871428,january,22,1,weekday,
138,WECCbus157,1.0286249,-0.82011563,3.0449734,-0.25631755,january,23,1,weekday,
144,WECCbus157,1.0298863999999999,-0.80216496,2.9047908,-0.26151407,january,0,3,weekend,
150,WECCbus157,1.0306799999999998,-0.79026243,2.8117825,-0.26411072,january,1,3,weekend,
156,WECCbus157,1.0309815999999998,-0.78557684,2.7755513,-0.26494118,january,2,3,weekend,
162,WECCbus157,1.0310738000000002,-0.78412247,2.764442,-0.26517838,january,3,3,weekend,
168,WECCbus157,1.0310925,-0.78383256,2.7621537,-0.26522917,january,4,3,weekend,
174,WECCbus157,1.0308713,-0.78725623,2.7889752999999997,-0.26460337,january,5,3,weekend,
180,WECCbus157,1.0302276,-0.79702345,2.865171,-0.26257585,january,6,3,weekend,
186,WECCbus157,1.0291101999999999,-0.81308285,2.9930559,-0.25825169,january,7,3,weekend,
192,WECCbus157,1.0288291999999999,-0.8165896,3.0259395000000002,-0.25672891,january,8,3,weekend,
198,WECCbus157,1.0305535,-0.79168731,2.8288936000000002,-0.26333992,january,9,3,weekend,
204,WECCbus157,1.0317636000000001,-0.7725263000000001,2.6812713,-0.26634640000000004,january,10,3,weekend,
210,WECCbus157,1.0325311,-0.75988813,2.5806658,-0.26763714,january,11,3,weekend,
216,WECCbus157,1.0326982,-0.75712502,2.5576837,-0.2678687,january,12,3,weekend,
222,WECCbus157,1.0327153,-0.75679356,2.5555875,-0.26786375,january,13,3,weekend,
228,WECCbus157,1.0327011000000001,-0.75700374,2.5576345000000003,-0.26782347,january,14,3,weekend,
234,WECCbus157,1.0323778000000001,-0.76225168,2.6021688999999997,-0.26728883,january,15,3,weekend,
240,WECCbus157,1.031578,-0.7747606,2.7085227,-0.26545592,january,16,3,weekend,
246,WECCbus157,1.0290766,-0.81360414,2.9959387000000004,-0.25806818,january,17,3,weekend,
252,WECCbus157,1.0261619,-0.85259318,3.2959485,-0.24335494,january,18,3,weekend,
258,WECCbus157,1.0250256,-0.86632684,3.4055044000000003,-0.23622361,january,19,3,weekend,
264,WECCbus157,1.0251363000000002,-0.86496903,3.3954184,-0.23693356,january,20,3,weekend,
270,WECCbus157,1.025543,-0.8600565999999998,3.3565242,-0.23947081,january,21,3,weekend,
276,WECCbus157,1.0266737,-0.84599006,3.2466916,-0.24627712,january,22,3,weekend,
282,WECCbus157,1.0282974,-0.82466442,3.079744,-0.25482985,january,23,3,weekend,
0,WECCbus54,0.9935159,-1.7575343999999997,2.8621619,0.57638068,january,0,1,weekday,
6,WECCbus54,1.0157708,-1.7280448,2.3955669,-0.14091084,january,1,1,weekday,
12,WECCbus54,1.0160359,-1.7237508000000001,2.3635,-0.14228587,january,2,1,weekday,
18,WECCbus54,1.0161154000000001,-1.7224575,2.3547234,-0.14263755,january,3,1,weekday,
24,WECCbus54,1.016145,-1.7220313999999999,2.351313,-0.14278893,january,4,1,weekday,
30,WECCbus54,1.0159467,-1.7251866000000002,2.378083,-0.14162950000000002,january,5,1,weekday,
36,WECCbus54,1.0153853000000002,-1.7341311999999998,2.4459091,-0.13856897,january,6,1,weekday,
42,WECCbus54,1.0145059,-1.7480686999999997,2.5514602,-0.13318829999999998,january,7,1,weekday,
48,WECCbus54,1.0143783000000002,-1.7505839,2.5673897,-0.13227454,january,8,1,weekday,
54,WECCbus54,1.0155888000000002,-1.7313601000000003,2.4597938,-0.1374398,january,9,1,weekday,
60,WECCbus54,1.0166981,-1.7133266,2.3353957000000003,-0.14267787,january,10,1,weekday,
66,WECCbus54,1.017374,-1.701445,2.253791,-0.14542864,january,11,1,weekday,
72,WECCbus54,1.0174928,-1.6991623,2.2351353,-0.14604194,january,12,1,weekday,
78,WECCbus54,1.0174969999999999,-1.6990443,2.2343896,-0.14605431,january,13,1,weekday,
84,WECCbus54,1.0174833,-1.699412,2.2346331000000004,-0.14611119,january,14,1,weekday,
90,WECCbus54,1.0172031,-1.7044996,2.2673658,-0.14513781,january,15,1,weekday,
96,WECCbus54,1.0163706000000001,-1.7185376,2.3488669,-0.14255344,january,16,1,weekday,
102,WECCbus54,1.0139722,-1.7556744999999998,2.5915388,-0.1311767,january,17,1,weekday,
108,WECCbus54,1.0122870000000002,-1.7807643,2.8270536,-0.11481968,january,18,1,weekday,
114,WECCbus54,1.0110248,-1.7968756000000001,2.9095545,-0.10856152,january,19,1,weekday,
120,WECCbus54,1.0111296,-1.7955326,2.9007319,-0.10927784,january,20,1,weekday,
126,WECCbus54,1.0114639,-1.7910273999999997,2.8680136000000003,-0.11186627,january,21,1,weekday,
132,WECCbus54,1.0123879999999998,-1.7784328,2.7736771,-0.11902019,january,22,1,weekday,
138,WECCbus54,1.0137462,-1.7590721999999999,2.6278405,-0.12869898,january,23,1,weekday,
144,WECCbus54,1.0148753000000001,-1.7421127,2.5004907000000003,-0.1359036,january,0,3,weekend,
150,WECCbus54,1.0155870999999999,-1.7309031000000004,2.4198017999999997,-0.13977101,january,1,3,weekend,
156,WECCbus54,1.0158695,-1.7263927,2.3872315,-0.14120729999999998,january,2,3,weekend,
162,WECCbus54,1.0159574,-1.7249683999999998,2.3796432999999997,-0.14149242,january,3,3,weekend,
168,WECCbus54,1.0159736,-1.7247014999999999,2.377785,-0.14157346,january,4,3,weekend,
174,WECCbus54,1.0157738,-1.7279194,2.4036927,-0.14042068,january,5,3,weekend,
180,WECCbus54,1.0151899,-1.7371651000000001,2.4734152000000003,-0.13714624,january,6,3,weekend,
186,WECCbus54,1.0142556,-1.7517095,2.5863728,-0.13107619,january,7,3,weekend,
192,WECCbus54,1.0141658000000002,-1.7535988999999998,2.5987888,-0.13028897,january,8,3,weekend,
198,WECCbus54,1.0155912,-1.7309106,2.4683144,-0.13667661,january,9,3,weekend,
204,WECCbus54,1.0167266,-1.7123609,2.3407421000000004,-0.14210121,january,10,3,weekend,
210,WECCbus54,1.0173793,-1.7009327,2.2548405,-0.14515067,january,11,3,weekend,
216,WECCbus54,1.0175001000000001,-1.6986813000000003,2.2364074,-0.14575355,january,12,3,weekend,
222,WECCbus54,1.0175275,-1.6982436,2.2332528999999997,-0.14584792,january,13,3,weekend,
228,WECCbus54,1.017527,-1.6983267,2.2309563,-0.14597181,january,14,3,weekend,
234,WECCbus54,1.0173136,-1.7023833,2.2657216,-0.14477525,january,15,3,weekend,
240,WECCbus54,1.0167966,-1.7120129000000002,2.3507694,-0.1414989,january,16,3,weekend,
246,WECCbus54,1.0141875,-1.7525301,2.5966962000000002,-0.13030831,january,17,3,weekend,
252,WECCbus54,1.0114899,-1.7904452000000002,2.8612841,-0.11238537,january,18,3,weekend,
258,WECCbus54,1.0105693,-1.8028164,2.9541022999999997,-0.10469021,january,19,3,weekend,
264,WECCbus54,1.0106815999999998,-1.8014028000000002,2.9446946,-0.10549149,january,20,3,weekend,
270,WECCbus54,1.0110178,-1.7969108,2.9124485,-0.10816448,january,21,3,weekend,
276,WECCbus54,1.0120082000000001,-1.7836163,2.8131401,-0.11601583,january,22,3,weekend,
282,WECCbus54,1.0134326999999999,-1.7635624,2.6608661,-0.12662362,january,23,3,weekend,
0,WECCbus57,0.99343964,-1.748537,2.6546991,0.53686136,january,0,1,weekday,
6,WECCbus57,1.0127398,-1.7205990000000002,2.1725338,-0.18037409,january,1,1,weekday,
12,WECCbus57,1.0129805,-1.7164019,2.1369233,-0.18199489,january,2,1,weekday,
18,WECCbus57,1.0130533000000002,-1.7151333999999998,2.1251037,-0.18253896,january,3,1,weekday,
24,WECCbus57,1.0130801999999999,-1.7147172999999998,2.1210102,-0.18273208,january,4,1,weekday,
30,WECCbus57,1.012902,-1.7177866999999998,2.1444475,-0.18171056,january,5,1,weekday,
36,WECCbus57,1.0123927,-1.7265247,2.2181039,-0.17815955,january,6,1,weekday,
42,WECCbus57,1.0115968000000002,-1.7401356,2.3279379000000002,-0.17230837,january,7,1,weekday,
48,WECCbus57,1.0114819,-1.7425999,2.3431017000000005,-0.17145136,january,8,1,weekday,
54,WECCbus57,1.0126035,-1.7236417000000002,2.1464562999999997,-0.18232687,january,9,1,weekday,
60,WECCbus57,1.0136164,-1.7059631000000002,1.9823085999999999,-0.18911617,january,10,1,weekday,
66,WECCbus57,1.0142325,-1.6943175,1.8797442,-0.19236131,january,11,1,weekday,
72,WECCbus57,1.0143384,-1.6920964,1.865866,-0.19265412,january,12,1,weekday,
78,WECCbus57,1.0143422,-1.6919810000000002,1.8653436999999997,-0.1926619,january,13,1,weekday,
84,WECCbus57,1.0143286,-1.6923511999999998,1.8696491999999998,-0.19252862,january,14,1,weekday,
90,WECCbus57,1.0140721,-1.6973476000000003,1.9149964,-0.19119741,january,15,1,weekday,
96,WECCbus57,1.0133016,-1.7111843999999998,2.0604009,-0.18573444,january,16,1,weekday,
102,WECCbus57,1.0110975,-1.7476552,2.4176342999999996,-0.16631989,january,17,1,weekday,
108,WECCbus57,1.0096116,-1.7719247999999999,2.5556798,-0.15748347,january,18,1,weekday,
114,WECCbus57,1.0084299,-1.7878642,2.7527299,-0.14049832,january,19,1,weekday,
120,WECCbus57,1.0085264,-1.7865456000000002,2.739236,-0.14175413,january,20,1,weekday,
126,WECCbus57,1.0088305,-1.7821397,2.7003015,-0.14510497,january,21,1,weekday,
132,WECCbus57,1.0096691999999998,-1.7698346999999999,2.5938096,-0.15393354,january,22,1,weekday,
138,WECCbus57,1.0109017,-1.7509211999999998,2.4316471,-0.16565267,january,23,1,weekday,
144,WECCbus57,1.0119264000000001,-1.7343499,2.2903971000000003,-0.17431678,january,0,3,weekend,
150,WECCbus57,1.0125746,-1.7233796000000001,2.1939802999999998,-0.17935315,january,1,3,weekend,
156,WECCbus57,1.0128319,-1.7189653999999999,2.154809,-0.18122063,january,2,3,weekend,
162,WECCbus57,1.0129137,-1.7175582999999999,2.1393823,-0.18197697,january,3,3,weekend,
168,WECCbus57,1.0129285,-1.7172968999999998,2.1370638,-0.18208188,january,4,3,weekend,
174,WECCbus57,1.0127484,-1.7204331000000002,2.1616459,-0.18097119,january,5,3,weekend,
180,WECCbus57,1.0122187,-1.7294667000000001,2.2379385,-0.17717905,january,6,3,weekend,
186,WECCbus57,1.0113749,-1.7436575,2.3509062000000003,-0.17099118,january,7,3,weekend,
192,WECCbus57,1.0112951,-1.7455049999999999,2.3600227000000005,-0.17050595,january,8,3,weekend,
198,WECCbus57,1.0126128,-1.7231488000000001,2.1336122000000004,-0.18295777,january,9,3,weekend,
204,WECCbus57,1.013649,-1.7049631999999997,1.9654111,-0.18975565,january,10,3,weekend,
210,WECCbus57,1.0142393,-1.6937973999999998,1.8749235,-0.19241613,january,11,3,weekend,
216,WECCbus57,1.0143472,-1.6916061999999998,1.8603237000000001,-0.19274261,january,12,3,weekend,
222,WECCbus57,1.0143723,-1.6911772,1.8558626,-0.19285615,january,13,3,weekend,
228,WECCbus57,1.0143703000000002,-1.6912717000000002,1.8590028000000003,-0.19272935,january,14,3,weekend,
234,WECCbus57,1.014181,-1.6952113000000002,1.8821238999999998,-0.19225866,january,15,3,weekend,
240,WECCbus57,1.0137242,-1.7045505,1.9341650000000001,-0.19114174,january,16,3,weekend,
246,WECCbus57,1.0113155999999999,-1.7444411,2.3552722999999998,-0.17070287,january,17,3,weekend,
252,WECCbus57,1.0088508,-1.7815853,2.7017007,-0.14487687,january,18,3,weekend,
258,WECCbus57,1.0080168,-1.7936674,2.8028949,-0.13576236,january,19,3,weekend,
264,WECCbus57,1.0081200000000001,-1.7922801,2.7887880000000003,-0.13713494,january,20,3,weekend,
270,WECCbus57,1.0084259,-1.7878858,2.7500426,-0.14062424,january,21,3,weekend,
276,WECCbus57,1.009325,-1.7748962,2.637121,-0.15038688,january,22,3,weekend,
282,WECCbus57,1.0106163000000001,-1.7553126000000001,2.4711092,-0.16293665,january,23,3,weekend,
0,WECCbus157,1.0154698,-0.80895408,3.0261449000000002,0.21853686,february,0,5,weekday,
6,WECCbus157,1.0309287,-0.78636232,2.7823016,-0.26478928,february,1,5,weekday,
12,WECCbus157,1.0312158,-0.78184281,2.7473907000000004,-0.26552208,february,2,5,weekday,
18,WECCbus157,1.0313108,-0.78035582,2.7356436,-0.26576689,february,3,5,weekday,
24,WECCbus157,1.0313272,-0.78003388,2.7339236000000002,-0.26576561,february,4,5,weekday,
30,WECCbus157,1.031126,-0.78321175,2.7585603,-0.26525783,february,5,5,weekday,
36,WECCbus157,1.0304949,-0.79289314,2.8344779,-0.26339317,february,6,5,weekday,
42,WECCbus157,1.0295495000000001,-0.8064038,2.9461512,-0.25977159,february,7,5,weekday,
48,WECCbus157,1.0295870999999999,-0.8060991,2.9407514,-0.26007781,february,8,5,weekday,
54,WECCbus157,1.0306563,-0.7899944000000001,2.817809,-0.26362611,february,9,5,weekday,
60,WECCbus157,1.0318326,-0.77114119,2.674286,-0.26636427,february,10,5,weekday,
66,WECCbus157,1.0322388,-0.76442172,2.6221255,-0.2670796,february,11,5,weekday,
72,WECCbus157,1.0324665000000002,-0.76078542,2.5910897,-0.26751420000000004,february,12,5,weekday,
78,WECCbus157,1.0324408999999999,-0.76117592,2.5947007,-0.26745651,february,13,5,weekday,
84,WECCbus157,1.0324626000000001,-0.7608315999999999,2.591632,-0.26749107,february,14,5,weekday,
90,WECCbus157,1.0321769,-0.76552081,2.6296969,-0.2670077,february,15,5,weekday,
96,WECCbus157,1.0313834000000002,-0.77872089,2.729044,-0.26562309,february,16,5,weekday,
102,WECCbus157,1.0296482,-0.80525979,2.9329285,-0.26026411,february,17,5,weekday,
108,WECCbus157,1.0272068,-0.83903146,3.1934981,-0.24915078,february,18,5,weekday,
114,WECCbus157,1.0259208,-0.85547254,3.3203676,-0.24188271,february,19,5,weekday,
120,WECCbus157,1.0257406,-0.85765672,3.3382117999999994,-0.24079734,february,20,5,weekday,
126,WECCbus157,1.0259774,-0.85465941,3.3153892,-0.2421386,february,21,5,weekday,
132,WECCbus157,1.0271006999999999,-0.84051859,3.2041333,-0.24870354,february,22,5,weekday,
138,WECCbus157,1.0286525,-0.81966422,3.0422767000000004,-0.25638806,february,23,5,weekday,
144,WECCbus157,1.0299154000000001,-0.80169736,2.9016365,-0.26158815,february,0,6,weekend,
150,WECCbus157,1.0307338,-0.78941422,2.8054718,-0.26425315,february,1,6,weekend,
156,WECCbus157,1.0310459,-0.78460386,2.7676203,-0.26513464,february,2,6,weekend,
162,WECCbus157,1.0311385,-0.78307582,2.7567251,-0.26532696,february,3,6,weekend,
168,WECCbus157,1.0311603999999999,-0.78273117,2.7540486,-0.26538306,february,4,6,weekend,
174,WECCbus157,1.0309376000000001,-0.78616729,2.7812914,-0.2647508,february,5,6,weekend,
180,WECCbus157,1.0302622,-0.79638252,2.8617453999999998,-0.26260938,february,6,6,weekend,
186,WECCbus157,1.0292360999999999,-0.81078198,2.98161,-0.25841874,february,7,6,weekend,
192,WECCbus157,1.0293815999999998,-0.80916959,2.9630742000000003,-0.25932186,february,8,6,weekend,
198,WECCbus157,1.0306977,-0.7894668,2.8118846,-0.26377045,february,9,6,weekend,
204,WECCbus157,1.0319008,-0.77014716,2.6644959,-0.26652059999999994,february,10,6,weekend,
210,WECCbus157,1.0322973,-0.76350196,2.6135177000000005,-0.26713518,february,11,6,weekend,
216,WECCbus157,1.0324997999999999,-0.76025219,2.5858529999999997,-0.26750723,february,12,6,weekend,
222,WECCbus157,1.0324575999999999,-0.76086847,2.5919564999999998,-0.26739036,february,13,6,weekend,
228,WECCbus157,1.0325296,-0.75972281,2.5819240000000003,-0.26752261,february,14,6,weekend,
234,WECCbus157,1.0322366,-0.76431695,2.6223313999999998,-0.26690089,february,15,6,weekend,
240,WECCbus157,1.0314275,-0.77767898,2.7247236,-0.26544184,february,16,6,weekend,
246,WECCbus157,1.0296486999999999,-0.80534852,2.9321601000000004,-0.26030203,february,17,6,weekend,
252,WECCbus157,1.0267704,-0.84515627,3.2347252999999996,-0.24705622,february,18,6,weekend,
258,WECCbus157,1.0253334,-0.86266278,3.3759886,-0.23817649999999999,february,19,6,weekend,
264,WECCbus157,1.025164,-0.86474196,3.3921826,-0.23717189,february,20,6,weekend,
270,WECCbus157,1.0254218000000002,-0.86154073,3.367944,-0.23871005,february,21,6,weekend,
276,WECCbus157,1.0266164,-0.84677299,3.2520999,-0.24598614,february,22,6,weekend,
282,WECCbus157,1.0282780999999999,-0.82493202,3.0817551,-0.25473684,february,23,6,weekend,
0,WECCbus54,0.9935159,-1.7575343999999997,2.8621619,0.57638068,february,0,5,weekday,
6,WECCbus54,1.0158498,-1.7269182,2.3770037,-0.14186709,february,1,5,weekday,
12,WECCbus54,1.0161206,-1.7225552,2.3445331,-0.14322054,february,2,5,weekday,
18,WECCbus54,1.0162026,-1.7211898,2.3351981,-0.14358596,february,3,5,weekday,
24,WECCbus54,1.0162378,-1.7206861,2.332337,-0.14368793,february,4,5,weekday,
30,WECCbus54,1.0160489,-1.7237405,2.3573629,-0.14265404,february,5,5,weekday,
36,WECCbus54,1.0154864,-1.732805,2.4264179,-0.13962808,february,6,5,weekday,
42,WECCbus54,1.0148126,-1.7439756999999998,2.5104081000000003,-0.13553035,february,7,5,weekday,
...
